*EXP.DETAILS: RORO7401WH N RESPONSE,ROTHAMSTED  8FE(N)  (DSSAT3)                     

*FILES
@N  EXP.DATA    AFILE        ADIR
  1 EXP         RORO7401.WHA C:\DSSAT48\Wheat\                                                               
@N  SPECIES     SPFILE       SPDIR
  1 SPE         WHCER048.SPE C:\DSSAT48\GENOTYPE\                                                            
@N  ECOTYPE     EFILE        EDIR
  1 ECO         WHCER048.ECO C:\DSSAT48\GENOTYPE\                                                            
@N  CULTIVAR    CFILE        CDIR
  1 CUL         WHCER048.CUL C:\DSSAT48\GENOTYPE\                                                            
@N  SOIL        SFILE        SDIR
  1 SOIL        SOIL.SOL     C:\DSSAT48\SOIL\                                                                
@N  WEATHER     WFILE        WDIR
  1 WEATH       RORO7401.WTH C:\DSSAT48\Weather\                                                             

*SIMULATION CONTROL
@N  GENERAL     NYERS NREPS START   SDATE RSEED SNAME.................... MODEL...
  1 GE              1     1     S 1974305  2150 N RESPONSE,ROTHAMSTED     CSCER048
@N  OPTIONS     WATER NITRO SYMBI PHOSP POTAS DISES  CHEM  TILL   CO2
  1 OP              Y     Y     N     N     N     N     N     N     M
@N  METHODS     WTHER INCON LIGHT EVAPO INFIL PHOTO HYDRO NSWIT SOMDY MESEV MESOL METMP MEGHG
  1 ME              M     M     E     R     S     C     R     1     G     S     2     D     0
@N  MANAGEMENT  PLANT IRRIG FERTI RESID HARVS
  1 MA              R     R     R     N     M
@N  OUTPUTS     FNAME OVVEW SUMRY FROPT GROUT CAOUT WAOUT NIOUT MIOUT DIOUT  LONG CHOUT OPOUT
  1 OU              N     Y     Y     1     Y     N     Y     Y     N     N     Y     N     N

!AUTOMATIC MANAGEM
@N  PLANTING      PFRST   PLAST PH2OL PH2OU PH2OD PSTMX PSTMN
  1 PL              -99     -99   40.  100.   30.   40.   10.
@N  IRRIGATION  IMDEP ITHRL ITHRU IROFF IMETH IRAMT IREFF
  1 IR            30.   50.  100. GS000 IR001  10.0 1.000
@N  NITROGEN    NMDEP NMTHR NAMNT NCODE NAOFF
  1 NI            30.   50.   25. FE001 GS000
@N  RESIDUES    RIPCN RTIME RIDEP
  1 RE           100.     1   20.
@N  HARVEST     HFRST   HLAST HPCNP HRCNR
  1 HA              0     -99  100.    0.

*TREATMENTS
@N   R O C TNAME....................  CU  FL  SA  IC  MP  MI  MF  MR  MC  MT  ME  MH  SM
  8  1 0 0 210 KG N/HA                 1   1   0   1   1   0   8   0   0   0   0   0   1

*CULTIVARS
@C  CR INGENO CNAME...   ECO#   P1V   P1D    P5    G1    G2    G3 PHINT
  1 WH IB1015 MARIS FU UKWH01  53.0  82.6 529.3  47.0  60.9  6.67 100.0

*FIELDS
@L  ID_FIELD WSTA....  FLSA  FLOB  FLDT  FLDD  FLDS  FLST SLTX   SLDP ID_SOIL    PMALB  PMWD
  1 RORO0001 RORO7401   0.0    0. DR000    0.  100. 00000 -99    155. IBWH980020-99.00 -99.0
@L             XCRD            YCRD      ELEV              AREA  SLEN  FLWR  SLAS PRMGT
  1         0.00000         0.00000      0.00               1.0  100.   1.0   0.0   -99   -99

*INITIAL CONDITIONS
@C  PCR     ICDAT  ICRT  ICND  ICRN  ICRE  ICWD ICRES ICREN ICREP ICRIP ICRID
  1 WH    1974305  2000     0  1.00  1.00 -99.0  3000  0.57  0.00  100.   10.
@C   ICBL  SH2O  SNH4  SNO3
  1    5. 0.330   3.0   6.0
  1   15. 0.330   3.0   5.5
  1   25. 0.330   3.0   5.0
  1   35. 0.330   3.0   4.0
  1   45. 0.330   3.0   4.0
  1   55. 0.330   2.0   3.0
  1   65. 0.330   2.0   3.0
  1   95. 0.330   2.0   2.0
  1  125. 0.330   1.0   0.5
  1  155. 0.330   0.5   0.5

*PLANTING DETAILS
@P    PDATE   EDATE  PPOP  PPOE  PLME  PLDS  PLRS  PLRD  PLDP  PLWT  PAGE  PENV  PLPH  SPRL
  1 1974310     -99 277.0 277.0     S     R   17.    0.   4.0  -99.  -99. -99.0 -99.0   0.0

*IRRIGATION
@I   IEFF  IDEP  ITHR  IEPT  IOFF  IAME  IAMT
  0 1.000    0.    0.    0. GS000 IR001   0.0
@I    IDATE  IROP IRVAL

*FERTILIZERS
@F    FDATE  FMCD  FACD  FDEP  FAMN  FAMP  FAMK  FAMC  FAMO  FOCD
  8 1975108 FE001 AP001   10.  210.    0.    0.    0.    0.   -99

*RESIDUES
@R    RDATE  RCOD  RAMT  RESN  RESP  RESK  RINP  RDEP  RMET

*CHEMICALS
@C    CDATE CHCOD CHAMT  CHME CHDEP   CHT

*TILLAGE
@T    TDATE TIMPL  TDEP

*ENVIRONMENT
@E    ODATE  EDAY  ERAD  EMAX  EMIN ERAIN  ECO2  EDEW EWIND

*HARVEST
@H    HDATE  HSTG  HCOM HSIZE   HPC  HBPC
