*MODEL INPUT FILE            B     8     1     8   999     0
*FILES              
MODEL          CSCER048
FILEX          RORO7401.WHX C:\DSSAT48\Wheat\                                                               
FILEA          RORO7401.WHA C:\DSSAT48\Wheat\                                                               
FILET          RORO7401.WHT C:\DSSAT48\Wheat\                                                               
SPECIES        WHCER048.SPE C:\DSSAT48\GENOTYPE\                                                            
ECOTYPE        WHCER048.ECO C:\DSSAT48\GENOTYPE\                                                            
CULTIVAR       WHCER048.CUL C:\DSSAT48\GENOTYPE\                                                            
PESTS          WHCER048.PST C:\DSSAT48\PEST\                                                                
SOILS          SOIL.SOL     C:\DSSAT48\SOIL\                                                                
WEATHERW       RORO7401.WTH C:\DSSAT48\Weather\                                                             
OUTPUT         OVERVIEW
*SIMULATION CONTROL 
                   1     1     S 1974305  2150 N RESPONSE,ROTHAMSTED    
                   Y     Y     N     N     N     N     N     N     M
                   M     M     E     R     S     C     R     1     G     S     2     D     0
                   R     R     R     N     M
                   N     Y     Y     1     Y     N     Y     Y     N     N     Y     N     N
!AUTOMATIC MANAGEM  
                   -99     -99   40.  100.   30.   40.   10.
                 30.   50.  100. GS000 IR001  10.0 1.000
                 30.   50.   25. FE001 GS000
                100.     1   20.
                     0     -99  100.    0.
*EXP.DETAILS        
  1RORO7401 WH N RESPONSE,ROTHAMSTED  8FE(N)  (DSSAT3)                     
*TREATMENTS         
  8 1 0 0 210 KG N/HA              
*CULTIVARS          
   WH IB1015 MARIS FUNDIN    
*FIELDS             
   RORO0001 RORO7401   0.0    0. DR000    0. 100.0 00000 -99    155. IBWH980020-99.00 -99.0
      0.0000000000    0.0000000000     0.000               1.0  100.   1.0   0.0   -99   -99
*INITIAL CONDITIONS 
   WH    1974305  2000     0  1.00  1.00 -99.0  3000  0.57  0.00  100.   10.
      5. 0.330  3.00  6.00
     15. 0.330  3.00  5.50
     25. 0.330  3.00  5.00
     35. 0.330  3.00  4.00
     45. 0.330  3.00  4.00
     55. 0.330  2.00  3.00
     65. 0.330  2.00  3.00
     95. 0.330  2.00  2.00
    125. 0.330  1.00 0.500
    155. 0.330 0.500 0.500
*PLANTING DETAILS   
   1974310     -99 277.0 277.0     S     R   17.    0.   4.0  -99.  -99. -99.0 -99.0   0.0
*IRRIGATION         
   1.000    0.    0.    0. GS000 IR001   0.0
*FERTILIZERS        
   1975108 FE001 AP001   10.  210.    0.    0.    0.    0.   -99
*RESIDUES           
*CHEMICALS          
*TILLAGE            
*ENVIRONMENT        
*HARVEST            
*SOIL               
 IBWH980020  IBSNAT      -99    155.   Rothamsted                                      
 Rothamsted  England      -0.009  -0.099 Rothamsted                                        
 -99    0.14   6.0  0.50   60.  1.00  1.00 IB001 IB001 IB001 -99  
    5.       0.110 0.280 0.330 1.000  -99.  1.10 1.160 -99.0 -99.0 -99.0  -9.0  7.00-99.00-99.00-99.00
   15.       0.130 0.300 0.375 0.950  -99.  1.15 1.080 -99.0 -99.0 -99.0  -9.0  7.00-99.00-99.00-99.00
   25.       0.150 0.320 0.420 0.900  -99.  1.20 1.000 -99.0 -99.0 -99.0  -9.0  7.00-99.00-99.00-99.00
   35.       0.220 0.370 0.420 0.700  -99.  1.25 0.680 -99.0 -99.0 -99.0  -9.0  7.00-99.00-99.00-99.00
   45.       0.220 0.370 0.420 0.700  -99.  1.25 0.680 -99.0 -99.0 -99.0  -9.0  7.00-99.00-99.00-99.00
   55.       0.220 0.370 0.420 0.500  -99.  1.25 0.260 -99.0 -99.0 -99.0  -9.0  7.00-99.00-99.00-99.00
   65.       0.220 0.370 0.420 0.500  -99.  1.25 0.260 -99.0 -99.0 -99.0  -9.0  7.00-99.00-99.00-99.00
   95.       0.220 0.370 0.420 0.200  -99.  1.25 0.250 -99.0 -99.0 -99.0  -9.0  7.00-99.00-99.00-99.00
  125.       0.220 0.370 0.420 0.100  -99.  1.25 0.200 -99.0 -99.0 -99.0  -9.0  7.00-99.00-99.00-99.00
  155.       0.220 0.370 0.420 0.050  -99.  1.25 0.200 -99.0 -99.0 -99.0  -9.0  7.00-99.00-99.00-99.00
                    
    5.-99.00 -99.0 -99.0 -99.0 -99.0 -99.0 -99.0 -99.0 -99.0 -99.0-99.00 -99.0 -99.0 -99.0 -99.0 -99.0  -99.  -99.
   15.-99.00 -99.0 -99.0 -99.0 -99.0 -99.0 -99.0 -99.0 -99.0 -99.0-99.00 -99.0 -99.0 -99.0 -99.0 -99.0  -99.  -99.
   25.-99.00 -99.0 -99.0 -99.0 -99.0 -99.0 -99.0 -99.0 -99.0 -99.0-99.00 -99.0 -99.0 -99.0 -99.0 -99.0  -99.  -99.
   35.-99.00 -99.0 -99.0 -99.0 -99.0 -99.0 -99.0 -99.0 -99.0 -99.0-99.00 -99.0 -99.0 -99.0 -99.0 -99.0  -99.  -99.
   45.-99.00 -99.0 -99.0 -99.0 -99.0 -99.0 -99.0 -99.0 -99.0 -99.0-99.00 -99.0 -99.0 -99.0 -99.0 -99.0  -99.  -99.
   55.-99.00 -99.0 -99.0 -99.0 -99.0 -99.0 -99.0 -99.0 -99.0 -99.0-99.00 -99.0 -99.0 -99.0 -99.0 -99.0  -99.  -99.
   65.-99.00 -99.0 -99.0 -99.0 -99.0 -99.0 -99.0 -99.0 -99.0 -99.0-99.00 -99.0 -99.0 -99.0 -99.0 -99.0  -99.  -99.
   95.-99.00 -99.0 -99.0 -99.0 -99.0 -99.0 -99.0 -99.0 -99.0 -99.0-99.00 -99.0 -99.0 -99.0 -99.0 -99.0  -99.  -99.
  125.-99.00 -99.0 -99.0 -99.0 -99.0 -99.0 -99.0 -99.0 -99.0 -99.0-99.00 -99.0 -99.0 -99.0 -99.0 -99.0  -99.  -99.
  155.-99.00 -99.0 -99.0 -99.0 -99.0 -99.0 -99.0 -99.0 -99.0 -99.0-99.00 -99.0 -99.0 -99.0 -99.0 -99.0  -99.  -99.
                    
    5.-99.00-99.00-99.00-99.00
   15.-99.00-99.00-99.00-99.00
   25.-99.00-99.00-99.00-99.00
   35.-99.00-99.00-99.00-99.00
   45.-99.00-99.00-99.00-99.00
   55.-99.00-99.00-99.00-99.00
   65.-99.00-99.00-99.00-99.00
   95.-99.00-99.00-99.00-99.00
  125.-99.00-99.00-99.00-99.00
  155.-99.00-99.00-99.00-99.00
*CULTIVAR           
